FoamFile {
    version         2.2;
    format          ascii;

    root            "";
    case            "";
    instance        "constant";
    local           "";

    class           dictionary;
    object          gmtDict;
}

projection "X10c/5c";
projection2D XZ;
boundaryPatch ground;

FieldsToPlot (
    [Tdiff contours -1.0 -0.01 0.01 "black"]
    [Tdiff contours 0.01 1.0 0.01 "black,3_3:0"]
);

region "-75e3/75e3/0/15e3";
boundaryMarks "25e3/5e3WSen";
